<configuration>
    <input>
        <net-file value="craver_road.net.xml"/>
	<route-files value="scaled_pedtrips.xml, scaled_vehtrips.xml"/>
    </input>
</configuration>