<configuration>
    <input>
        <net-file value="craver_road.net.xml"/>
	<route-files value="pdtrips_adj.xml,vehtrips.xml"/>
    </input>
</configuration>