<?xml version="1.0" encoding="UTF-8"?>

<!-- generated on 2024-11-29 10:29:07 by Eclipse SUMO netconvert Version 1.20.0
<configuration xmlns:xsi="http://www.w3.org/2001/XMLSchema-instance" xsi:noNamespaceSchemaLocation="http://sumo.dlr.de/xsd/netconvertConfiguration.xsd">

    <input>
        <node-files value="./SUMO_files/component_SUMO_files/iteration_base.nod.xml"/>
        <edge-files value="./SUMO_files/component_SUMO_files/iteration_base.edg.xml"/>
        <connection-files value="./SUMO_files/component_SUMO_files/iteration_base.con.xml"/>
        <tllogic-files value="./SUMO_files/component_SUMO_files/iteration_base.tll.xml"/>
        <type-files value="./SUMO_files/component_SUMO_files/iteration_base.typ.xml"/>
    </input>

    <output>
        <output-file value="./SUMO_files/network_iterations/network_iteration_base.net.xml"/>
        <output.street-names value="true"/>
    </output>

</configuration>
-->

<net version="1.20" junctionCornerDetail="5" limitTurnSpeed="5.50" xmlns:xsi="http://www.w3.org/2001/XMLSchema-instance" xsi:noNamespaceSchemaLocation="http://sumo.dlr.de/xsd/net_file.xsd">

    <location netOffset="8987657.04,-4205692.93" convBoundary="0.00,0.00,917.27,219.84" origBoundary="-80.755739,35.288692,-80.708073,35.331715" projParameter="+proj=merc +a=6378137 +b=6378137 +lat_ts=0.0 +lon_0=0.0 +x_0=0.0 +y_0=0 +k=1.0 +units=m +nadgrids=@null +wktext +no_defs"/>

    <type id="highway.footway" priority="1" numLanes="1" speed="2.78" allow="pedestrian" oneway="1" width="2.00"/>
    <type id="highway.service" priority="1" numLanes="1" speed="5.56" allow="pedestrian delivery bicycle" oneway="1"/>
    <type id="highway.steps" priority="1" numLanes="1" speed="1.39" allow="pedestrian" oneway="1" width="2.00"/>
    <type id="highway.tertiary" priority="10" numLanes="1" speed="13.89" disallow="pedestrian tram rail_urban rail rail_electric rail_fast ship" oneway="1" sidewalkWidth="-1.00"/>

    <edge id=":10054309033_w0" function="walkingarea">
        <lane id=":10054309033_w0_0" index="0" allow="pedestrian" speed="2.78" length="4.56" width="2.00" shape="757.28,149.42 758.30,147.70 758.51,146.93 758.51,144.93 751.71,145.13 751.81,147.13 753.98,147.32 754.70,147.65 755.39,148.12 756.19,148.71"/>
    </edge>
    <edge id=":10054309034_w0" function="walkingarea">
        <lane id=":10054309034_w0_0" index="0" allow="pedestrian" speed="2.78" length="0.29" width="2.00" shape="776.03,160.58 777.03,158.84 776.79,158.71 775.77,160.43"/>
    </edge>
    <edge id=":10054309035_w0" function="walkingarea">
        <lane id=":10054309035_w0_0" index="0" allow="pedestrian" speed="2.78" length="0.29" width="2.00" shape="781.77,163.88 782.75,162.14 782.51,162.00 781.51,163.74"/>
    </edge>
    <edge id=":10054309038_w0" function="walkingarea">
        <lane id=":10054309038_w0_0" index="0" allow="pedestrian" speed="2.78" length="4.01" width="2.00" shape="788.89,163.79 787.13,162.85 786.59,163.51 786.27,163.66 785.91,163.70 785.53,163.63 785.11,163.45 784.14,165.20 785.01,165.86 785.30,166.24 785.49,166.65 785.58,167.10 785.57,167.58 787.55,167.82 787.79,166.26 787.94,165.72 788.16,165.20 788.46,164.60"/>
    </edge>
    <edge id=":10054309041_w0" function="walkingarea">
        <lane id=":10054309041_w0_0" index="0" allow="pedestrian" speed="2.78" length="3.86" width="2.00" shape="800.18,158.06 800.82,156.16 800.04,155.72 799.78,155.42 799.60,155.06 799.50,154.64 799.48,154.16 797.48,154.06 797.28,154.93 797.06,155.26 796.76,155.53 796.39,155.73 795.94,155.87 796.36,157.83 797.78,157.57 798.29,157.56 798.80,157.63 799.39,157.80"/>
    </edge>
    <edge id=":10054309045_w0" function="walkingarea">
        <lane id=":10054309045_w0_0" index="0" allow="pedestrian" speed="2.78" length="5.80" width="2.00" shape="818.25,163.08 818.00,160.96 815.46,161.95 814.48,162.04 813.47,161.94 812.27,161.71 810.71,161.40 810.36,163.37 811.17,163.69 811.45,163.95 811.64,164.28 811.75,164.67 811.77,165.14 813.77,165.22 814.75,164.32 815.69,163.94 816.70,163.61 817.61,163.32"/>
    </edge>
    <edge id=":10054309051_w0" function="walkingarea">
        <lane id=":10054309051_w0_0" index="0" allow="pedestrian" speed="2.78" length="5.98" width="2.00" shape="834.42,147.84 834.48,145.84 826.43,145.62 826.37,147.62 827.17,147.81 827.41,148.02 827.55,148.31 827.58,148.67 827.51,149.12 829.45,149.60 830.21,148.58 830.93,148.23 831.87,148.00 833.03,147.87"/>
    </edge>
    <edge id=":10054309101_w0" function="walkingarea">
        <lane id=":10054309101_w0_0" index="0" allow="pedestrian" speed="2.78" length="6.43" width="2.00" shape="890.28,172.26 891.74,170.90 889.52,168.42 888.75,167.55 887.95,166.70 886.93,165.72 885.50,164.46 884.20,165.98 885.12,167.18 885.43,167.97 885.65,168.89 885.77,169.93 885.79,171.09 887.79,171.13 888.08,170.59 888.43,170.67 888.91,170.97 889.53,171.50"/>
    </edge>
    <edge id=":10054309102_w0" function="walkingarea">
        <lane id=":10054309102_w0_0" index="0" allow="pedestrian" speed="2.78" length="3.86" width="2.00" shape="888.83,199.89 888.83,197.89 887.29,196.39 885.29,196.34 883.75,197.92 883.75,199.92 884.99,201.39 886.95,201.78"/>
    </edge>
    <edge id=":10054309103_w0" function="walkingarea">
        <lane id=":10054309103_w0_0" index="0" allow="pedestrian" speed="2.78" length="0.18" width="2.00" shape="888.46,199.87 888.39,197.87 888.19,197.89 888.19,199.89"/>
    </edge>
    <edge id=":10054309104_w0" function="walkingarea">
        <lane id=":10054309104_w0_0" index="0" allow="pedestrian" speed="2.78" length="0.26" width="2.00" shape="892.10,199.74 892.07,197.74 891.78,197.75 891.85,199.75"/>
    </edge>
    <edge id=":10054309105_w0" function="walkingarea">
        <lane id=":10054309105_w0_0" index="0" allow="pedestrian" speed="2.78" length="3.73" width="2.00" shape="902.62,196.16 900.62,196.13 900.44,196.97 900.22,197.26 899.92,197.47 899.54,197.60 899.07,197.65 899.09,199.65 900.49,201.71 902.49,201.81"/>
    </edge>
    <edge id=":10054309112_w0" function="walkingarea">
        <lane id=":10054309112_w0_0" index="0" allow="pedestrian" speed="2.78" length="7.89" width="2.00" shape="898.46,183.84 900.24,182.92 899.33,180.70 899.22,179.85 899.24,178.97 899.34,177.91 899.45,176.52 897.46,176.40 896.92,176.46 896.41,175.99 895.85,175.38 895.32,174.76 894.90,174.28 893.22,175.41 895.01,177.58 896.08,179.48 896.43,181.12 896.08,182.49 895.01,183.61 893.22,184.46 894.78,185.88 896.52,184.15 897.20,183.68 897.75,183.47 898.17,183.52"/>
    </edge>
    <edge id=":10054309115_w0" function="walkingarea">
        <lane id=":10054309115_w0_0" index="0" allow="pedestrian" speed="2.78" length="5.89" width="2.00" shape="889.12,187.72 888.95,185.72 888.13,185.30 887.85,184.70 887.67,183.84 887.57,182.73 887.56,181.36 885.56,181.31 885.40,189.34 887.40,189.37 887.60,188.52 887.84,188.20 888.18,187.97 888.60,187.80"/>
    </edge>
    <edge id=":172668791_0" function="internal">
        <lane id=":172668791_0_0" index="0" disallow="pedestrian tram rail_urban rail rail_electric rail_fast ship cable_car subway" speed="8.94" length="8.18" shape="115.20,61.42 115.33,63.80 115.81,65.40 116.33,67.01 116.56,69.39"/>
        <lane id=":172668791_0_1" index="1" disallow="pedestrian tram rail_urban rail rail_electric rail_fast ship cable_car subway" speed="8.94" length="8.18" shape="115.20,61.42 114.83,63.81 114.21,65.39 113.63,66.98 113.36,69.37"/>
    </edge>
    <edge id=":172668791_w0" function="walkingarea">
        <lane id=":172668791_w0_0" index="0" allow="pedestrian" speed="2.78" length="7.95" width="3.00" shape="118.16,69.41 121.16,69.43 119.80,61.67 116.80,61.51 116.83,63.20 117.06,64.44 117.41,65.45 117.77,66.46 118.06,67.70"/>
    </edge>
    <edge id=":7221608314_0" function="internal">
        <lane id=":7221608314_0_0" index="0" disallow="pedestrian tram rail_urban rail rail_electric rail_fast ship cable_car subway" speed="8.94" length="8.53" shape="107.42,213.65 106.82,211.21 105.66,209.71 104.51,208.21 103.92,205.77"/>
        <lane id=":7221608314_0_1" index="1" disallow="pedestrian tram rail_urban rail rail_electric rail_fast ship cable_car subway" speed="8.94" length="8.53" shape="107.42,213.65 107.12,205.66"/>
        <lane id=":7221608314_0_2" index="2" disallow="pedestrian tram rail_urban rail rail_electric rail_fast ship cable_car subway" speed="8.94" length="8.53" shape="107.42,213.65 107.82,211.17 108.85,209.60 109.90,208.02 110.31,205.54"/>
    </edge>
    <edge id=":9655154423_w0" function="walkingarea">
        <lane id=":9655154423_w0_0" index="0" allow="pedestrian" speed="2.78" length="4.08" width="2.00" shape="737.53,155.30 739.53,155.28 739.60,153.83 739.74,153.32 740.00,152.86 740.39,152.35 740.94,151.74 739.36,150.59 738.76,151.13 738.46,151.20 738.16,151.15 737.85,150.95 737.54,150.63 735.98,151.88 736.90,153.00 737.19,153.44 737.38,153.91 737.49,154.50"/>
    </edge>
    <edge id=":9655154520_w0" function="walkingarea">
        <lane id=":9655154520_w0_0" index="0" allow="pedestrian" speed="2.78" length="7.15" width="2.00" shape="750.23,147.21 750.13,145.21 740.50,145.66 740.59,147.65 741.30,147.74 741.45,147.88 741.46,148.08 741.33,148.35 741.06,148.68 742.52,150.05 744.85,148.03 745.89,147.58 747.03,147.37 748.43,147.29"/>
    </edge>
    <edge id=":9655154527_w0" function="walkingarea">
        <lane id=":9655154527_w0_0" index="0" allow="pedestrian" speed="2.78" length="7.22" width="2.00" shape="734.74,150.35 736.14,148.96 735.71,148.36 735.71,148.15 735.86,147.99 736.15,147.88 736.57,147.83 736.48,145.84 726.82,146.17 726.88,148.17 730.40,148.34 731.83,148.63 733.03,149.07 734.00,149.64"/>
    </edge>
    <edge id=":9655154530_w0" function="walkingarea">
        <lane id=":9655154530_w0_0" index="0" allow="pedestrian" speed="2.78" length="4.76" width="2.00" shape="649.53,147.65 651.53,147.53 651.78,146.69 652.13,146.40 652.65,146.19 653.32,146.06 654.14,146.02 654.14,144.02 653.31,143.80 653.01,143.53 652.81,143.15 652.68,142.66 652.64,142.06 650.64,142.06 650.34,143.15 649.96,143.53 649.43,143.80 648.75,143.96 647.92,144.01 647.92,146.01 648.77,146.19 649.08,146.42 649.31,146.74 649.46,147.15"/>
    </edge>
    <edge id=":9655154873_w0" function="walkingarea">
        <lane id=":9655154873_w0_0" index="0" allow="pedestrian" speed="2.78" length="1.02" width="2.00" shape="902.59,201.74 902.59,199.74 900.59,199.64"/>
    </edge>
    <edge id=":9655154879_w0" function="walkingarea">
        <lane id=":9655154879_w0_0" index="0" allow="pedestrian" speed="2.78" length="9.40" width="2.00" shape="904.16,199.76 904.13,201.76 913.52,201.91 913.56,199.91"/>
    </edge>
    <edge id=":9655154897_w0" function="walkingarea">
        <lane id=":9655154897_w0_0" index="0" allow="pedestrian" speed="2.78" length="3.53" width="2.00" shape="917.57,198.46 915.57,198.45 915.40,199.28 915.19,199.57 914.89,199.77 914.52,199.89 914.06,199.92 914.02,201.92 915.98,201.57 916.67,201.09 917.17,200.42 917.46,199.54"/>
    </edge>
    <edge id=":9658681335_w0" function="walkingarea">
        <lane id=":9658681335_w0_0" index="0" allow="pedestrian" speed="2.78" length="0.24" width="2.00" shape="918.27,149.61 916.27,149.62 916.27,149.82 918.27,149.88"/>
    </edge>
    <edge id=":9658681347_w0" function="walkingarea">
        <lane id=":9658681347_w0_0" index="0" allow="pedestrian" speed="2.78" length="1.43" width="2.00" shape="914.41,69.31 916.41,69.17 916.11,68.06 915.80,67.69 915.38,67.44 914.86,67.32 914.24,67.31 914.41,69.31"/>
    </edge>
    <edge id=":9658685906_w0" function="walkingarea">
        <lane id=":9658685906_w0_0" index="0" allow="pedestrian" speed="2.78" length="0.10" width="2.00" shape="915.27,82.20 917.27,82.18 917.27,82.06 915.27,82.20"/>
    </edge>
    <edge id=":9666242268_w0" function="walkingarea">
        <lane id=":9666242268_w0_0" index="0" allow="pedestrian" speed="2.78" length="3.54" width="2.00" shape="124.55,132.02 126.55,131.94 126.68,131.11 126.88,130.82 127.16,130.62 127.53,130.50 127.99,130.46 128.01,128.46 125.27,127.14 123.55,128.16"/>
    </edge>
    <edge id=":9666242290_w0" function="walkingarea">
        <lane id=":9666242290_w0_0" index="0" allow="pedestrian" speed="2.78" length="1.48" width="2.00" shape="125.36,219.62 125.36,217.62 122.36,217.61 122.36,219.61"/>
    </edge>
    <edge id=":9666242291_w0" function="walkingarea">
        <lane id=":9666242291_w0_0" index="0" allow="pedestrian" speed="2.78" length="2.46" width="2.00" shape="105.01,219.59 105.01,217.59 103.45,216.09 101.55,218.69"/>
    </edge>
    <edge id=":9666242292_w0" function="walkingarea">
        <lane id=":9666242292_w0_0" index="0" allow="pedestrian" speed="2.78" length="7.94" width="3.00" shape="111.56,217.59 111.56,219.59 122.76,219.61 122.76,217.61 121.85,216.10 118.85,216.10"/>
    </edge>
    <edge id=":9666242293_w0" function="walkingarea">
        <lane id=":9666242293_w0_0" index="0" allow="pedestrian" speed="2.78" length="5.83" width="2.00" shape="104.85,217.59 104.85,219.59 110.68,219.59 110.68,217.59"/>
    </edge>
    <edge id=":9666242294_w0" function="walkingarea">
        <lane id=":9666242294_w0_0" index="0" allow="pedestrian" speed="2.78" length="3.42" width="2.00" shape="127.23,216.14 125.23,216.12 123.72,217.62 123.72,219.62 125.12,221.90 127.12,222.00"/>
    </edge>
    <edge id=":9666274568_w0" function="walkingarea">
        <lane id=":9666274568_w0_0" index="0" allow="pedestrian" speed="2.78" length="6.98" width="2.00" shape="395.53,150.06 395.56,148.04 393.55,147.76 392.05,147.63 390.81,147.62 389.56,147.70 388.05,147.85 386.02,148.03 386.18,150.02 386.88,150.06 387.02,150.17 387.00,150.34 386.84,150.58 386.53,150.87 387.81,152.40 390.25,150.82 391.52,150.32 392.82,150.04 394.16,149.95"/>
    </edge>
    <edge id=":9666274574_w0" function="walkingarea">
        <lane id=":9666274574_w0_0" index="0" allow="pedestrian" speed="2.78" length="8.23" width="2.00" shape="413.68,145.84 413.74,143.84 402.38,143.40 402.23,145.40 403.47,145.57 403.77,145.69 403.85,145.84 403.71,146.01 403.37,146.20 404.20,148.02 406.10,147.15 407.54,146.52 408.77,146.11 410.04,145.88 411.59,145.80"/>
    </edge>
    <edge id=":9666274616_w0" function="walkingarea">
        <lane id=":9666274616_w0_0" index="0" allow="pedestrian" speed="2.78" length="0.30" width="2.00" shape="514.12,146.80 514.14,144.80 513.84,144.80 513.82,146.80"/>
    </edge>
    <edge id=":9666274634_w0" function="walkingarea">
        <lane id=":9666274634_w0_0" index="0" allow="pedestrian" speed="2.78" length="0.26" width="2.00" shape="458.27,153.15 456.89,151.71 456.68,151.91 458.10,153.32"/>
    </edge>
    <edge id=":9666274635_w0" function="walkingarea">
        <lane id=":9666274635_w0_0" index="0" allow="pedestrian" speed="2.78" length="6.67" width="2.00" shape="468.89,147.40 468.92,145.40 460.08,145.23 460.05,147.23 460.76,147.36 460.90,147.51 460.90,147.72 460.75,147.98 460.46,148.29 461.84,149.74 464.04,147.98 464.98,147.58 466.01,147.40 467.26,147.37"/>
    </edge>
    <edge id=":9666274693_w0" function="walkingarea">
        <lane id=":9666274693_w0_0" index="0" allow="pedestrian" speed="2.78" length="0.30" width="2.00" shape="127.46,186.61 125.46,186.61 125.46,186.90 127.46,186.92"/>
    </edge>
    <edge id=":9666274719_w0" function="walkingarea">
        <lane id=":9666274719_w0_0" index="0" allow="pedestrian" speed="2.78" length="8.06" width="2.00" shape="179.44,133.55 180.28,131.73 180.41,131.13 180.45,129.13 169.52,128.97 169.49,130.97 171.69,131.04 173.32,131.19 174.64,131.47 175.93,131.93 177.44,132.61"/>
    </edge>
    <edge id=":9666274721_w0" function="walkingarea">
        <lane id=":9666274721_w0_0" index="0" allow="pedestrian" speed="2.78" length="6.11" width="2.00" shape="277.48,129.40 277.52,127.40 269.37,127.26 269.34,129.26 270.11,129.43 270.32,129.62 270.42,129.89 270.40,130.24 270.26,130.67 272.11,131.44 273.10,130.27 273.89,129.87 274.89,129.59 276.09,129.44"/>
    </edge>
    <edge id=":9666274722_w0" function="walkingarea">
        <lane id=":9666274722_w0_0" index="0" allow="pedestrian" speed="2.78" length="4.05" width="2.00" shape="232.04,130.68 234.04,130.68 234.21,129.78 234.41,129.46 234.71,129.23 235.08,129.07 235.54,129.01 235.45,127.01 230.44,127.26 230.54,129.26 231.37,129.38 231.67,129.57 231.87,129.85 232.00,130.22"/>
    </edge>
    <edge id=":9666274728_w0" function="walkingarea">
        <lane id=":9666274728_w0_0" index="0" allow="pedestrian" speed="2.78" length="2.15" width="2.00" shape="357.88,154.65 357.56,152.67 354.63,153.17 355.02,155.13"/>
    </edge>
    <edge id=":9666274729_w0" function="walkingarea">
        <lane id=":9666274729_w0_0" index="0" allow="pedestrian" speed="2.78" length="0.24" width="2.00" shape="375.08,151.82 374.69,149.86 374.49,149.89 374.82,151.87"/>
    </edge>
    <edge id=":9666274737_w0" function="walkingarea">
        <lane id=":9666274737_w0_0" index="0" allow="pedestrian" speed="2.78" length="2.08" width="2.00" shape="349.51,143.34 351.32,142.50 350.27,140.15 348.39,140.84"/>
    </edge>
    <edge id=":9666274738_w0" function="walkingarea">
        <lane id=":9666274738_w0_0" index="0" allow="pedestrian" speed="2.78" length="0.25" width="2.00" shape="350.20,144.85 352.04,144.06 351.93,143.80 350.12,144.65"/>
    </edge>
    <edge id=":9666274742_w0" function="walkingarea">
        <lane id=":9666274742_w0_0" index="0" allow="pedestrian" speed="2.78" length="3.65" width="2.00" shape="356.37,154.86 355.97,152.90 354.21,151.59 352.25,151.95 352.23,152.79 352.07,153.09 351.82,153.32 351.47,153.48 351.02,153.57 351.20,155.56"/>
    </edge>
    <edge id=":9666274744_w0" function="walkingarea">
        <lane id=":9666274744_w0_0" index="0" allow="pedestrian" speed="2.78" length="6.28" width="2.00" shape="348.65,141.53 350.52,140.84 352.33,139.80 352.65,137.83 344.33,136.00 343.88,137.95"/>
    </edge>
    <edge id=":9666274798_w0" function="walkingarea">
        <lane id=":9666274798_w0_0" index="0" allow="pedestrian" speed="2.78" length="5.29" width="2.00" shape="420.94,150.71 422.94,150.64 423.02,148.15 423.20,147.28 423.47,146.66 423.83,146.30 424.29,146.19 424.35,144.19 423.45,143.98 423.12,143.74 422.89,143.42 422.74,143.01 422.68,142.51 420.68,142.57 420.54,143.40 420.34,143.68 420.06,143.88 419.69,143.99 419.23,144.02 419.16,146.02 420.08,146.56 420.42,147.22 420.67,148.13 420.85,149.29"/>
    </edge>
    <edge id=":9666274802_w0" function="walkingarea">
        <lane id=":9666274802_w0_0" index="0" allow="pedestrian" speed="2.78" length="5.33" width="2.00" shape="424.71,164.07 424.82,162.07 423.98,161.85 423.68,161.61 423.47,161.29 423.33,160.88 423.27,160.39 421.27,160.45 420.75,161.30 420.08,161.61 419.13,161.84 417.90,161.99 416.40,162.07 416.45,164.07 418.89,164.17 419.70,164.35 420.23,164.61 420.49,164.95 420.46,165.38 422.36,166.03 422.93,164.90 423.29,164.51 423.71,164.24 424.18,164.10"/>
    </edge>
    <edge id=":9666274808_w0" function="walkingarea">
        <lane id=":9666274808_w0_0" index="0" allow="pedestrian" speed="2.78" length="6.24" width="2.00" shape="421.32,161.93 423.32,161.87 424.67,157.40 424.72,155.40 423.82,155.21 423.49,154.99 423.26,154.68 423.11,154.30 423.05,153.83 421.05,153.89 420.57,154.76 419.95,155.08 419.08,155.34 417.95,155.53 416.56,155.65 416.68,157.65"/>
    </edge>
    <edge id=":9666274813_w0" function="walkingarea">
        <lane id=":9666274813_w0_0" index="0" allow="pedestrian" speed="2.78" length="4.48" width="2.00" shape="449.13,162.39 447.71,160.98 446.83,161.43 446.25,161.45 445.59,161.35 444.84,161.11 444.00,160.74 443.12,162.54 442.96,163.11 442.85,165.11 445.06,164.89 446.12,164.52 447.15,163.98 448.16,163.27"/>
    </edge>
    <edge id=":9666274886_w0" function="walkingarea">
        <lane id=":9666274886_w0_0" index="0" allow="pedestrian" speed="2.78" length="4.03" width="2.00" shape="538.77,147.06 538.77,145.06 537.94,144.89 537.65,144.67 537.44,144.37 537.31,143.99 537.27,143.52 535.27,143.52 535.10,144.35 534.89,144.64 534.60,144.84 534.23,144.96 533.77,145.00 533.75,147.00"/>
    </edge>
    <edge id=":9687148182_w0" function="walkingarea">
        <lane id=":9687148182_w0_0" index="0" allow="pedestrian" speed="2.78" length="3.45" width="2.00" shape="94.68,131.74 96.24,130.49 96.15,128.08 94.50,126.95 92.14,128.05 91.94,130.04 92.91,130.30 93.37,130.54 93.82,130.87 94.26,131.27"/>
    </edge>
    <edge id=":9687148197_w0" function="walkingarea">
        <lane id=":9687148197_w0_0" index="0" allow="pedestrian" speed="2.78" length="1.75" width="4.00" shape="124.25,129.34 125.97,128.33 125.08,124.55 123.08,124.55 121.58,126.05 121.58,128.05"/>
    </edge>
    <edge id=":9687148198_w0" function="walkingarea">
        <lane id=":9687148198_w0_0" index="0" allow="pedestrian" speed="2.78" length="1.31" width="4.00" shape="126.61,105.23 125.52,103.55 121.95,104.40 121.85,106.40 123.35,107.98 125.35,107.98"/>
    </edge>
    <edge id=":9687148199_w0" function="walkingarea">
        <lane id=":9687148199_w0_0" index="0" allow="pedestrian" speed="2.78" length="1.68" width="4.00" shape="101.72,106.63 101.42,104.65 99.72,103.39 97.74,103.69 97.81,108.19 99.80,108.39"/>
    </edge>
    <edge id=":9687148200_w0" function="walkingarea">
        <lane id=":9687148200_w0_0" index="0" allow="pedestrian" speed="2.78" length="2.09" width="4.00" shape="98.67,127.56 98.67,125.56 97.47,124.09 95.52,123.68 94.01,127.66 95.66,128.80"/>
    </edge>
    <edge id=":9687148211_w0" function="walkingarea">
        <lane id=":9687148211_w0_0" index="0" allow="pedestrian" speed="2.78" length="3.50" width="2.00" shape="98.01,105.46 99.98,105.16 100.84,101.92 99.26,100.69 98.32,101.65 97.89,101.88 97.40,102.01 96.79,102.11 96.01,102.21 96.30,104.19"/>
    </edge>
    <edge id=":9687148317_w0" function="walkingarea">
        <lane id=":9687148317_w0_0" index="0" allow="pedestrian" speed="2.78" length="0.30" width="2.00" shape="98.40,145.81 96.40,145.79 96.40,146.09 98.40,146.11"/>
    </edge>
    <edge id=":9687187495_w0" function="walkingarea">
        <lane id=":9687187495_w0_0" index="0" allow="pedestrian" speed="2.78" length="1.65" width="2.00" shape="123.09,35.56 123.09,33.56 120.09,33.55 120.09,35.55"/>
    </edge>
    <edge id=":9687187500_0" function="internal">
        <lane id=":9687187500_0_0" index="0" disallow="pedestrian tram rail_urban rail rail_electric rail_fast ship cable_car subway" speed="8.94" length="5.04" shape="116.50,31.98 116.46,37.02"/>
    </edge>
    <edge id=":9687187500_c0" function="crossing" crossingEdges="1078803477#4.109">
        <lane id=":9687187500_c0_0" index="0" allow="pedestrian" speed="2.78" length="3.20" width="4.00" shape="114.88,33.97 118.08,33.99" outlineShape="114.90,31.97 118.10,31.99 118.07,35.99 114.87,35.97 114.85,32.02 113.39,33.45 113.35,35.45"/>
    </edge>
    <edge id=":9687187500_w0" function="walkingarea">
        <lane id=":9687187500_w0_0" index="0" allow="pedestrian" speed="2.78" length="3.36" width="4.00" shape="118.06,37.02 121.06,37.06 121.24,35.55 121.24,33.55 121.10,32.01 118.10,31.99 118.07,35.99"/>
    </edge>
    <edge id=":9687187500_w1" function="walkingarea">
        <lane id=":9687187500_w1_0" index="0" allow="pedestrian" speed="2.78" length="1.59" width="4.00" shape="114.87,35.97 114.90,31.97 113.39,33.45 113.35,35.45"/>
    </edge>
    <edge id=":9687187501_0" function="internal">
        <lane id=":9687187501_0_0" index="0" disallow="pedestrian tram rail_urban rail rail_electric rail_fast ship cable_car subway" speed="8.94" length="5.13" shape="108.63,36.94 108.90,31.82"/>
    </edge>
    <edge id=":9687187501_c0" function="crossing" crossingEdges="773672649#2">
        <lane id=":9687187501_c0_0" index="0" allow="pedestrian" speed="2.78" length="3.20" width="4.00" shape="107.19,33.73 110.39,33.91" outlineShape="107.30,31.73 110.50,31.91 110.28,35.90 107.08,35.73 107.30,31.73"/>
    </edge>
    <edge id=":9687187501_w0" function="walkingarea">
        <lane id=":9687187501_w0_0" index="0" allow="pedestrian" speed="2.78" length="1.59" width="4.00" shape="111.87,35.42 111.91,33.42 110.50,31.91 110.28,35.90"/>
    </edge>
    <edge id=":9687187501_w1" function="walkingarea">
        <lane id=":9687187501_w1_0" index="0" allow="pedestrian" speed="2.78" length="1.66" width="4.00" shape="107.08,35.73 107.30,31.73 105.66,33.33 105.62,35.33"/>
    </edge>
    <edge id=":9687187513_w0" function="walkingarea">
        <lane id=":9687187513_w0_0" index="0" allow="pedestrian" speed="2.78" length="5.86" width="2.00" shape="103.59,1.50 103.62,-0.50 95.62,-0.63 95.59,1.37 96.42,1.55 96.71,1.76 96.91,2.06 97.03,2.44 97.06,2.89 99.06,2.93 99.57,2.10 100.20,1.82 101.08,1.63 102.21,1.52"/>
    </edge>
    <edge id=":9687187518_w0" function="walkingarea">
        <lane id=":9687187518_w0_0" index="0" allow="pedestrian" speed="2.78" length="5.22" width="2.00" shape="97.16,73.58 101.03,71.58 98.25,66.26 96.25,66.29 96.10,67.12 95.90,67.41 95.61,67.61 95.24,67.73 94.78,67.76 94.73,69.76"/>
    </edge>
    <edge id=":9687187522_w0" function="walkingarea">
        <lane id=":9687187522_w0_0" index="0" allow="pedestrian" speed="2.78" length="5.80" width="2.00" shape="102.60,67.15 100.60,67.08 100.34,69.58 100.10,70.45 99.77,71.08 99.37,71.45 98.89,71.58 98.89,73.58 99.71,73.75 100.00,73.95 100.20,74.25 100.31,74.62 100.34,75.08 102.34,75.14"/>
    </edge>
    <edge id=":9687187524_w0" function="walkingarea">
        <lane id=":9687187524_w0_0" index="0" allow="pedestrian" speed="2.78" length="4.03" width="2.00" shape="96.08,57.10 98.08,57.06 98.23,56.23 98.43,55.93 98.72,55.73 99.09,55.60 99.55,55.56 99.55,53.56 98.72,53.39 98.43,53.19 98.23,52.89 98.11,52.52 98.08,52.06 96.08,52.02"/>
    </edge>
    <edge id=":9687187526_w0" function="walkingarea">
        <lane id=":9687187526_w0_0" index="0" allow="pedestrian" speed="2.78" length="5.86" width="2.00" shape="102.47,35.28 102.50,33.28 101.67,33.10 101.38,32.89 101.18,32.59 101.06,32.22 101.03,31.76 99.03,31.72 98.89,39.72 100.88,39.76 101.10,37.26 101.32,36.39 101.63,35.77 102.01,35.40"/>
    </edge>
    <edge id=":9727779401_0" function="internal">
        <lane id=":9727779401_0_0" index="0" allow="pedestrian passenger delivery bicycle" speed="3.65" length="4.67" shape="310.69,57.42 309.48,56.63 309.07,55.84 309.46,55.03 310.65,54.22"/>
    </edge>
    <edge id=":9727779405_0" function="internal">
        <lane id=":9727779405_0_0" index="0" allow="pedestrian passenger delivery bicycle" speed="5.56" length="5.38" shape="335.25,110.70 334.95,112.27 334.72,113.34 334.45,114.39 334.02,115.93"/>
    </edge>
    <edge id=":9727779405_1" function="internal">
        <lane id=":9727779405_1_0" index="0" allow="pedestrian passenger delivery bicycle" speed="3.65" length="1.44" shape="335.25,110.70 334.24,111.72"/>
    </edge>
    <edge id=":9727779405_4" function="internal">
        <lane id=":9727779405_4_0" index="0" allow="pedestrian passenger delivery bicycle" speed="3.65" length="3.23" shape="334.24,111.72 333.38,111.96 332.67,111.42 332.11,110.09"/>
    </edge>
    <edge id=":9727779405_2" function="internal">
        <lane id=":9727779405_2_0" index="0" allow="pedestrian passenger delivery bicycle" speed="5.56" length="5.13" shape="330.94,115.08 332.11,110.09"/>
    </edge>
    <edge id=":9727779405_3" function="internal">
        <lane id=":9727779405_3_0" index="0" allow="pedestrian passenger delivery bicycle" speed="3.65" length="1.44" shape="330.94,115.08 332.03,114.14"/>
    </edge>
    <edge id=":9727779405_5" function="internal">
        <lane id=":9727779405_5_0" index="0" allow="pedestrian passenger delivery bicycle" speed="3.65" length="3.23" shape="332.03,114.14 332.90,113.96 333.57,114.56 334.02,115.93"/>
    </edge>
    <edge id=":9727779405_w0" function="walkingarea">
        <lane id=":9727779405_w0_0" index="0" allow="pedestrian" speed="2.78" length="6.41" width="6.40" shape="337.57,114.83 337.99,112.87 337.21,112.53 336.96,112.25 336.82,111.90 336.77,111.49 336.82,111.00 330.54,109.78 329.83,110.78 329.15,110.97 328.25,110.95 327.14,110.73 325.80,110.30 325.39,112.28 326.97,112.86 327.89,113.25 328.71,113.69 329.27,114.16 329.40,114.65 335.55,116.40 336.01,115.39 336.32,115.06 336.69,114.86 337.11,114.78"/>
    </edge>
    <edge id=":9727779406_0" function="internal">
        <lane id=":9727779406_0_0" index="0" disallow="pedestrian tram rail_urban rail rail_electric rail_fast ship cable_car subway" speed="8.94" length="22.21" shape="344.95,127.88 323.31,122.91"/>
    </edge>
    <edge id=":9727779406_1" function="internal">
        <lane id=":9727779406_1_0" index="0" allow="passenger delivery bicycle" speed="7.25" length="7.64" shape="344.95,127.88 337.87,125.63 337.70,125.52"/>
    </edge>
    <edge id=":9727779406_7" function="internal">
        <lane id=":9727779406_7_0" index="0" allow="passenger delivery bicycle" speed="7.25" length="13.50" shape="337.70,125.52 333.16,122.78 330.83,119.33 330.88,115.29"/>
    </edge>
    <edge id=":9727779406_2" function="internal">
        <lane id=":9727779406_2_0" index="0" allow="passenger delivery bicycle" speed="7.25" length="15.96" shape="333.95,116.17 334.10,118.76 336.11,121.05 339.97,123.06 345.69,124.77"/>
    </edge>
    <edge id=":9727779406_3" function="internal">
        <lane id=":9727779406_3_0" index="0" allow="passenger delivery bicycle" speed="7.25" length="14.13" shape="333.95,116.17 332.38,119.75 330.09,122.07 327.06,123.12 323.31,122.91"/>
    </edge>
    <edge id=":9727779406_4" function="internal">
        <lane id=":9727779406_4_0" index="0" allow="pedestrian passenger delivery bicycle" speed="3.65" length="4.67" shape="333.95,116.17 332.85,117.10 331.98,117.27 331.32,116.67 330.88,115.29"/>
    </edge>
    <edge id=":9727779406_5" function="internal">
        <lane id=":9727779406_5_0" index="0" allow="passenger delivery bicycle" speed="6.76" length="9.26" shape="323.95,119.78 326.38,119.91 328.35,119.20 329.85,117.67 330.88,115.29"/>
    </edge>
    <edge id=":9727779406_6" function="internal">