<?xml version="1.0" encoding="UTF-8"?>

<!-- generated on 2025-03-22 11:56:39 by Eclipse SUMO netconvert Version UNKNOWN
<netconvertConfiguration xmlns:xsi="http://www.w3.org/2001/XMLSchema-instance" xsi:noNamespaceSchemaLocation="http://sumo.dlr.de/xsd/netconvertConfiguration.xsd">

    <input>
        <node-files value="./SUMO_files/component_SUMO_files/iteration_base.nod.xml"/>
        <edge-files value="./SUMO_files/component_SUMO_files/iteration_base.edg.xml"/>
        <connection-files value="./SUMO_files/component_SUMO_files/iteration_base.con.xml"/>
        <tllogic-files value="./SUMO_files/component_SUMO_files/iteration_base.tll.xml"/>
        <type-files value="./SUMO_files/component_SUMO_files/iteration_base.typ.xml"/>
    </input>

    <output>
        <output-file value="./SUMO_files/network_iterations/network_iteration_base.net.xml"/>
        <output.street-names value="true"/>
    </output>

    <report>
        <log value="SUMO_files/netconvert_log.txt"/>
    </report>

</netconvertConfiguration>
-->

<net version="1.20" junctionCornerDetail="5" limitTurnSpeed="5.50" xmlns:xsi="http://www.w3.org/2001/XMLSchema-instance" xsi:noNamespaceSchemaLocation="http://sumo.dlr.de/xsd/net_file.xsd">

    <location netOffset="8987657.04,-4205692.93" convBoundary="0.00,0.00,917.27,219.84" origBoundary="-80.755739,35.288692,-80.708073,35.331715" projParameter="+proj=merc +a=6378137 +b=6378137 +lat_ts=0.0 +lon_0=0.0 +x_0=0.0 +y_0=0 +k=1.0 +units=m +nadgrids=@null +wktext +no_defs"/>

    <type id="highway.footway" priority="1" numLanes="1" speed="2.78" allow="pedestrian" oneway="1" width="2.00"/>
    <type id="highway.service" priority="1" numLanes="1" speed="5.56" allow="pedestrian delivery bicycle" oneway="1"/>
    <type id="highway.steps" priority="1" numLanes="1" speed="1.39" allow="pedestrian" oneway="1" width="2.00"/>
    <type id="highway.tertiary" priority="10" numLanes="1" speed="13.89" disallow="pedestrian tram rail_urban rail rail_electric rail_fast ship" oneway="1" sidewalkWidth="-1.00"/>

    <edge id=":10054309033_w0" function="walkingarea">
        <lane id=":10054309033_w0_0" index="0" allow="pedestrian" speed="2.78" length="7.62" width="4.00" shape="759.52,151.92 761.57,148.48 761.78,147.64 761.58,143.65 751.36,144.15 751.55,148.14 754.74,148.52 755.77,149.10 756.75,149.89 757.92,150.84"/>
    </edge>
    <edge id=":10054309034_w0" function="walkingarea">
        <lane id=":10054309034_w0_0" index="0" allow="pedestrian" speed="2.78" length="0.29" width="4.00" shape="775.53,161.44 777.53,157.98 777.30,157.85 775.26,161.29"/>
    </edge>
    <edge id=":10054309035_w0" function="walkingarea">
        <lane id=":10054309035_w0_0" index="0" allow="pedestrian" speed="2.78" length="0.29" width="4.00" shape="781.29,164.76 783.24,161.26 783.01,161.14 781.01,164.60"/>
    </edge>
    <edge id=":10054309038_w0" function="walkingarea">
        <lane id=":10054309038_w0_0" index="0" allow="pedestrian" speed="2.78" length="4.90" width="4.00" shape="785.31,162.42 783.36,165.91 784.07,166.49 784.30,166.84 784.45,167.23 784.51,167.66 784.49,168.14 788.46,168.63 788.71,167.21 788.91,166.73 789.21,166.30 789.65,165.87 790.28,165.35 787.79,162.22 786.99,162.65 786.58,162.73 786.16,162.72 785.74,162.62"/>
    </edge>
    <edge id=":10054309041_w0" function="walkingarea">
        <lane id=":10054309041_w0_0" index="0" allow="pedestrian" speed="2.78" length="4.86" width="4.00" shape="795.00,156.50 797.49,159.63 798.31,159.19 798.75,159.10 799.21,159.10 799.69,159.19 800.18,159.37 801.80,155.72 801.05,155.21 800.79,154.88 800.62,154.51 800.52,154.08 800.51,153.61 796.51,153.42 796.30,154.63 796.09,155.17 795.80,155.66 795.44,156.10"/>
    </edge>
    <edge id=":10054309045_w0" function="walkingarea">
        <lane id=":10054309045_w0_0" index="0" allow="pedestrian" speed="2.78" length="4.93" width="4.00" shape="811.06,159.82 809.44,163.48 810.20,163.98 810.46,164.31 810.64,164.69 810.74,165.11 810.76,165.59 814.75,165.75 814.89,164.28 815.05,163.77 815.32,163.31 815.73,162.82 816.31,162.22 813.50,159.37 812.76,159.89 812.36,160.01 811.94,160.04 811.51,159.98"/>
    </edge>
    <edge id=":10054309051_w0" function="walkingarea">
        <lane id=":10054309051_w0_0" index="0" allow="pedestrian" speed="2.78" length="7.57" width="4.00" shape="823.37,149.62 826.19,152.46 828.53,150.40 829.58,149.68 830.54,149.17 831.42,148.88 832.21,148.79 832.31,144.79 823.06,144.52 822.94,148.52 823.66,148.66 823.80,148.81 823.80,149.03 823.66,149.29"/>
    </edge>
    <edge id=":10054309101_w0" function="walkingarea">
        <lane id=":10054309101_w0_0" index="0" allow="pedestrian" speed="2.78" length="7.29" width="4.00" shape="889.79,173.21 892.71,170.48 890.45,168.00 889.65,167.13 888.83,166.30 887.79,165.32 886.34,164.05 883.72,167.08 884.34,168.23 884.54,169.18 884.68,170.38 884.74,171.83 884.73,173.52 888.73,173.61 888.87,172.90 889.02,172.76 889.22,172.77 889.48,172.92"/>
    </edge>
    <edge id=":10054309102_w0" function="walkingarea">
        <lane id=":10054309102_w0_0" index="0" allow="pedestrian" speed="2.78" length="5.41" width="4.00" shape="889.76,200.85 889.76,196.85 888.31,195.35 884.31,195.22 882.57,196.92 882.57,200.92 883.77,202.39 887.69,203.18"/>
    </edge>
    <edge id=":10054309103_w0" function="walkingarea">
        <lane id=":10054309103_w0_0" index="0" allow="pedestrian" speed="2.78" length="0.22" width="4.00" shape="889.36,200.84 889.22,196.84 889.06,196.85 889.06,200.85"/>
    </edge>
    <edge id=":10054309104_w0" function="walkingarea">
        <lane id=":10054309104_w0_0" index="0" allow="pedestrian" speed="2.78" length="0.26" width="4.00" shape="892.11,200.74 892.06,196.74 891.74,196.75 891.88,200.75"/>
    </edge>
    <edge id=":10054309105_w0" function="walkingarea">
        <lane id=":10054309105_w0_0" index="0" allow="pedestrian" speed="2.78" length="4.97" width="4.00" shape="902.72,194.35 898.80,195.18 898.81,196.00 898.66,196.28 898.41,196.49 898.07,196.62 897.62,196.67 897.67,200.67 899.47,202.14 903.46,202.34"/>
    </edge>
    <edge id=":10054309112_w0" function="walkingarea">
        <lane id=":10054309112_w0_0" index="0" allow="pedestrian" speed="2.78" length="9.01" width="4.00" shape="892.90,180.64 894.99,184.05 895.78,183.98 896.12,184.28 896.44,184.80 896.71,185.54 896.96,186.51 900.87,185.68 900.40,183.05 900.21,181.08 900.23,179.44 900.36,177.79 900.50,175.79 900.57,173.10 896.57,173.10 896.46,173.81 896.31,173.95 896.11,173.94 895.86,173.80 895.54,173.50 892.62,176.24 893.87,178.02 894.06,178.79 893.96,179.49 893.58,180.11"/>
    </edge>
    <edge id=":10054309115_w0" function="walkingarea">
        <lane id=":10054309115_w0_0" index="0" allow="pedestrian" speed="2.78" length="6.54" width="4.00" shape="888.55,181.83 884.55,181.74 884.40,189.52 888.40,189.58 888.80,188.51 889.28,187.92 889.96,187.30 890.82,186.65 891.88,185.96 889.79,182.55 889.09,182.82 888.84,182.76 888.67,182.58 888.57,182.27"/>
    </edge>
    <edge id=":172668791_0" function="internal">
        <lane id=":172668791_0_0" index="0" disallow="pedestrian tram rail_urban rail rail_electric rail_fast ship cable_car subway" speed="8.94" length="8.18" shape="115.20,61.42 115.33,63.80 115.81,65.40 116.33,67.01 116.56,69.39"/>
        <lane id=":172668791_0_1" index="1" disallow="pedestrian tram rail_urban rail rail_electric rail_fast ship cable_car subway" speed="8.94" length="8.18" shape="115.20,61.42 114.83,63.81 114.21,65.39 113.63,66.98 113.36,69.37"/>
    </edge>
    <edge id=":172668791_w0" function="walkingarea">
        <lane id=":172668791_w0_0" index="0" allow="pedestrian" speed="2.78" length="7.95" width="3.00" shape="118.16,69.41 121.16,69.43 119.80,61.67 116.80,61.51 116.83,63.20 117.06,64.44 117.41,65.45 117.77,66.46 118.06,67.70"/>
    </edge>
    <edge id=":7221608314_0" function="internal">
        <lane id=":7221608314_0_0" index="0" disallow="pedestrian tram rail_urban rail rail_electric rail_fast ship cable_car subway" speed="8.94" length="8.53" shape="107.42,213.65 106.82,211.21 105.66,209.71 104.51,208.22 103.92,205.77"/>
        <lane id=":7221608314_0_1" index="1" disallow="pedestrian tram rail_urban rail rail_electric rail_fast ship cable_car subway" speed="8.94" length="8.53" shape="107.42,213.65 107.12,205.66"/>
        <lane id=":7221608314_0_2" index="2" disallow="pedestrian tram rail_urban rail rail_electric rail_fast ship cable_car subway" speed="8.94" length="8.53" shape="107.42,213.65 107.81,211.17 108.85,209.60 109.90,208.02 110.31,205.54"/>
    </edge>
    <edge id=":9655154423_w0" function="walkingarea">
        <lane id=":9655154423_w0_0" index="0" allow="pedestrian" speed="2.78" length="4.74" width="4.00" shape="742.40,151.65 739.57,148.82 737.45,148.82 734.62,151.65 736.41,155.21 740.33,156.03"/>
    </edge>
    <edge id=":9655154520_w0" function="walkingarea">
        <lane id=":9655154520_w0_0" index="0" allow="pedestrian" speed="2.78" length="6.85" width="4.00" shape="738.03,144.76 738.20,148.75 738.64,149.75 741.47,152.58 747.11,148.36 746.91,144.37"/>
    </edge>
    <edge id=":9655154527_w0" function="walkingarea">
        <lane id=":9655154527_w0_0" index="0" allow="pedestrian" speed="2.78" length="6.37" width="4.00" shape="735.65,152.68 738.48,149.85 738.91,148.72 738.74,144.73 730.63,145.02 730.53,149.02"/>
    </edge>
    <edge id=":9655154530_w0" function="walkingarea">
        <lane id=":9655154530_w0_0" index="0" allow="pedestrian" speed="2.78" length="6.04" width="4.00" shape="648.34,148.44 652.15,149.67 652.79,148.21 653.16,147.70 653.57,147.34 654.02,147.13 654.50,147.07 654.60,143.07 647.26,143.03 647.30,147.03 648.08,147.18 648.31,147.37 648.43,147.65 648.44,148.00"/>
    </edge>
    <edge id=":9655154873_w0" function="walkingarea">
        <lane id=":9655154873_w0_0" index="0" allow="pedestrian" speed="2.78" length="2.01" width="4.00" shape="903.57,202.75 903.64,198.75 899.65,198.55"/>
    </edge>
    <edge id=":9655154879_w0" function="walkingarea">
        <lane id=":9655154879_w0_0" index="0" allow="pedestrian" speed="2.78" length="10.56" width="4.00" shape="904.17,198.76 904.11,202.76 914.59,202.97 914.79,198.98"/>
    </edge>
    <edge id=":9655154897_w0" function="walkingarea">
        <lane id=":9655154897_w0_0" index="0" allow="pedestrian" speed="2.78" length="2.61" width="4.00" shape="914.58,198.97 914.38,202.96 916.69,202.62 917.50,202.08 918.08,201.30 918.44,200.28 918.58,199.02 914.58,198.97"/>
    </edge>
    <edge id=":9658681335_w0" function="walkingarea">
        <lane id=":9658681335_w0_0" index="0" allow="pedestrian" speed="2.78" length="0.28" width="4.00" shape="919.27,149.58 915.27,149.61 915.27,149.84 919.27,149.90"/>
    </edge>
    <edge id=":9658681347_w0" function="walkingarea">
        <lane id=":9658681347_w0_0" index="0" allow="pedestrian" speed="2.78" length="4.75" width="4.00" shape="913.58,71.88 917.57,71.62 916.75,68.59 915.91,67.57 914.78,66.89 913.37,66.54 911.67,66.52 911.99,70.51 912.83,70.61 913.14,70.79 913.36,71.07 913.51,71.43"/>
    </edge>
    <edge id=":9658685906_w0" function="walkingarea">
        <lane id=":9658685906_w0_0" index="0" allow="pedestrian" speed="2.78" length="0.10" width="4.00" shape="914.27,82.23 918.27,82.20 918.26,81.97 914.27,82.23"/>
    </edge>
    <edge id=":9666242268_w0" function="walkingarea">
        <lane id=":9666242268_w0_0" index="0" allow="pedestrian" speed="2.78" length="4.68" width="4.00" shape="128.99,131.47 129.04,127.47 125.87,126.13 122.37,128.07 123.51,133.02 127.51,132.95 127.66,132.12 127.87,131.83 128.16,131.63 128.53,131.51"/>
    </edge>
    <edge id=":9666242290_w0" function="walkingarea">
        <lane id=":9666242290_w0_0" index="0" allow="pedestrian" speed="2.78" length="0.97" width="4.00" shape="125.12,220.61 125.12,216.61 122.12,216.61 122.12,220.61"/>
    </edge>
    <edge id=":9666242291_w0" function="walkingarea">
        <lane id=":9666242291_w0_0" index="0" allow="pedestrian" speed="2.78" length="3.91" width="4.00" shape="107.36,220.59 107.36,216.59 106.51,216.42 106.20,216.22 105.96,215.93 105.80,215.55 105.72,215.10 101.74,215.46 102.57,218.31 103.38,219.31 104.44,220.02 105.77,220.45"/>
    </edge>
    <edge id=":9666242292_w0" function="walkingarea">
        <lane id=":9666242292_w0_0" index="0" allow="pedestrian" speed="2.78" length="8.25" width="4.00" shape="111.56,216.59 111.54,220.59 122.64,220.61 122.64,216.61 121.85,215.10 118.85,215.10"/>
    </edge>
    <edge id=":9666242293_w0" function="walkingarea">
        <lane id=":9666242293_w0_0" index="0" allow="pedestrian" speed="2.78" length="4.64" width="4.00" shape="106.00,216.59 106.00,220.59 110.63,220.59 110.65,216.59"/>
    </edge>
    <edge id=":9666242294_w0" function="walkingarea">
        <lane id=":9666242294_w0_0" index="0" allow="pedestrian" speed="2.78" length="4.34" width="4.00" shape="128.24,215.14 124.24,215.11 122.69,216.61 122.69,220.61 124.19,222.11 128.19,222.11"/>
    </edge>
    <edge id=":9666274568_w0" function="walkingarea">
        <lane id=":9666274568_w0_0" index="0" allow="pedestrian" speed="2.78" length="6.57" width="4.00" shape="395.99,151.14 396.03,147.10 392.98,146.71 391.90,146.68 390.82,146.75 389.52,146.91 387.76,147.14 388.28,151.10 389.35,151.37 389.94,151.81 390.56,152.45 391.22,153.28 391.92,154.32 395.30,152.18 395.03,151.50 395.08,151.29 395.25,151.16 395.56,151.11"/>
    </edge>
    <edge id=":9666274574_w0" function="walkingarea">
        <lane id=":9666274574_w0_0" index="0" allow="pedestrian" speed="2.78" length="8.96" width="4.00" shape="400.79,141.67 400.36,145.65 400.48,146.43 402.13,150.07 404.09,149.09 405.53,148.25 406.74,147.57 407.98,147.08 409.54,146.81 411.68,146.77 411.82,142.77"/>
    </edge>
    <edge id=":9666274616_w0" function="walkingarea">
        <lane id=":9666274616_w0_0" index="0" allow="pedestrian" speed="2.78" length="2.98" width="4.00" shape="512.55,143.81 512.59,147.81 515.52,147.81 515.57,143.81"/>
    </edge>
    <edge id=":9666274634_w0" function="walkingarea">
        <lane id=":9666274634_w0_0" index="0" allow="pedestrian" speed="2.78" length="2.96" width="4.00" shape="459.89,152.99 457.13,150.09 454.97,152.21 457.81,155.02"/>
    </edge>
    <edge id=":9666274635_w0" function="walkingarea">
        <lane id=":9666274635_w0_0" index="0" allow="pedestrian" speed="2.78" length="7.18" width="4.00" shape="457.76,144.12 457.65,148.12 458.36,148.26 458.50,148.41 458.50,148.62 458.35,148.88 458.06,149.20 460.82,152.09 462.58,150.09 463.22,149.33 463.94,148.77 464.91,148.41 466.31,148.28 466.27,144.28"/>
    </edge>
    <edge id=":9666274693_w0" function="walkingarea">
        <lane id=":9666274693_w0_0" index="0" allow="pedestrian" speed="2.78" length="2.97" width="4.00" shape="128.43,185.32 124.44,185.39 124.45,188.30 128.45,188.33"/>
    </edge>
    <edge id=":9666274719_w0" function="walkingarea">
        <lane id=":9666274719_w0_0" index="0" allow="pedestrian" speed="2.78" length="3.08" width="4.00" shape="181.48,134.65 181.45,128.13 178.51,128.09 178.46,132.09 179.70,132.62 180.01,133.13 180.30,133.70 180.74,134.23"/>
    </edge>
    <edge id=":9666274721_w0" function="walkingarea">
        <lane id=":9666274721_w0_0" index="0" allow="pedestrian" speed="2.78" length="6.48" width="4.00" shape="274.94,130.36 275.01,126.36 267.29,126.29 267.27,130.29 268.02,130.43 268.20,130.61 268.26,130.86 268.19,131.18 267.99,131.57 271.40,133.66 272.70,131.81 273.31,131.17 273.88,130.71 274.42,130.44"/>
    </edge>
    <edge id=":9666274722_w0" function="walkingarea">
        <lane id=":9666274722_w0_0" index="0" allow="pedestrian" speed="2.78" length="5.66" width="4.00" shape="231.05,131.74 235.05,131.64 235.19,130.81 235.39,130.52 235.68,130.31 236.05,130.19 236.51,130.15 236.53,126.15 229.34,126.31 229.51,130.31 230.35,130.44 230.65,130.64 230.86,130.92 231.00,131.29"/>
    </edge>
    <edge id=":9666274728_w0" function="walkingarea">
        <lane id=":9666274728_w0_0" index="0" allow="pedestrian" speed="2.78" length="1.72" width="4.00" shape="358.27,155.60 357.62,151.65 354.67,152.16 355.50,156.08"/>
    </edge>
    <edge id=":9666274729_w0" function="walkingarea">
        <lane id=":9666274729_w0_0" index="0" allow="pedestrian" speed="2.78" length="2.95" width="4.00" shape="376.43,152.66 375.91,148.69 372.93,149.14 373.58,153.08"/>
    </edge>
    <edge id=":9666274737_w0" function="walkingarea">
        <lane id=":9666274737_w0_0" index="0" allow="pedestrian" speed="2.78" length="1.97" width="4.00" shape="348.87,144.35 352.50,142.66 351.27,139.98 347.61,141.61"/>
    </edge>
    <edge id=":9666274738_w0" function="walkingarea">
        <lane id=":9666274738_w0_0" index="0" allow="pedestrian" speed="2.78" length="0.25" width="4.00" shape="349.28,145.25 352.96,143.67 352.83,143.38 349.21,145.07"/>
    </edge>
    <edge id=":9666274742_w0" function="walkingarea">
        <lane id=":9666274742_w0_0" index="0" allow="pedestrian" speed="2.78" length="6.10" width="4.00" shape="357.61,155.63 356.79,151.72 355.01,150.33 351.07,151.05 350.88,151.91 350.49,152.23 349.92,152.49 349.17,152.69 348.22,152.82 348.59,156.80"/>
    </edge>
    <edge id=":9666274744_w0" function="walkingarea">
        <lane id=":9666274744_w0_0" index="0" allow="pedestrian" speed="2.78" length="5.96" width="4.00" shape="348.35,143.28 352.01,141.65 352.89,140.45 353.32,136.47 346.03,135.48 345.28,139.41"/>
    </edge>
    <edge id=":9666274798_w0" function="walkingarea">
        <lane id=":9666274798_w0_0" index="0" allow="pedestrian" speed="2.78" length="5.69" width="4.00" shape="419.88,148.80 423.88,148.67 424.02,147.84 424.22,147.55 424.50,147.35 424.87,147.24 425.33,147.21 425.44,143.21 418.46,143.00 418.32,147.00 419.16,147.22 419.46,147.47 419.68,147.82 419.82,148.26"/>
    </edge>
    <edge id=":9666274802_w0" function="walkingarea">
        <lane id=":9666274802_w0_0" index="0" allow="pedestrian" speed="2.78" length="6.67" width="4.00" shape="417.89,166.28 421.28,168.41 422.74,166.49 423.48,165.82 424.24,165.34 424.99,165.06 425.76,164.97 425.81,160.97 424.23,159.28 420.23,159.47 417.09,161.05 417.19,165.05 417.93,165.17 418.11,165.34 418.17,165.58 418.09,165.90"/>
    </edge>
    <edge id=":9666274808_w0" function="walkingarea">
        <lane id=":9666274808_w0_0" index="0" allow="pedestrian" speed="2.78" length="6.90" width="4.00" shape="420.26,160.09 424.26,159.89 428.67,158.68 428.77,154.67 426.15,154.21 425.22,153.92 424.56,153.59 424.16,153.23 424.02,152.82 420.02,152.95 419.87,153.80 419.65,154.10 419.35,154.33 418.95,154.47 418.46,154.54 418.68,158.54"/>
    </edge>
    <edge id=":9666274813_w0" function="walkingarea">
        <lane id=":9666274813_w0_0" index="0" allow="pedestrian" speed="2.78" length="3.07" width="4.00" shape="442.77,158.71 442.64,165.18 445.64,165.21 445.69,161.22 444.49,160.66 444.21,160.13 443.93,159.57 443.50,159.06"/>
    </edge>
    <edge id=":9666274886_w0" function="walkingarea">
        <lane id=":9666274886_w0_0" index="0" allow="pedestrian" speed="2.78" length="3.25" width="4.00" shape="533.04,143.99 533.00,147.99 536.29,148.03 536.25,144.03"/>
    </edge>
    <edge id=":9687148182_w0" function="walkingarea">
        <lane id=":9687148182_w0_0" index="0" allow="pedestrian" speed="2.78" length="4.49" width="4.00" shape="94.53,133.04 97.60,130.57 97.11,129.71 97.02,129.28 97.04,128.86 97.16,128.43 97.39,128.02 94.06,125.79 93.21,126.82 92.76,127.18 92.29,127.44 91.81,127.59 91.32,127.64 91.28,131.64 92.83,131.80 93.42,132.00 93.91,132.27 94.28,132.62"/>
    </edge>
    <edge id=":9687148197_w0" function="walkingarea">
        <lane id=":9687148197_w0_0" index="0" allow="pedestrian" speed="2.78" length="2.85" width="8.00" shape="123.63,130.34 127.13,128.40 126.07,123.53 122.07,123.53 120.57,125.03 120.57,129.03"/>
    </edge>
    <edge id=":9687148198_w0" function="walkingarea">
        <lane id=":9687148198_w0_0" index="0" allow="pedestrian" speed="2.78" length="2.36" width="8.00" shape="127.56,105.73 125.29,102.44 120.82,103.46 120.82,107.46 122.32,108.96 126.32,108.96"/>
    </edge>
    <edge id=":9687148199_w0" function="walkingarea">
        <lane id=":9687148199_w0_0" index="0" allow="pedestrian" speed="2.78" length="2.51" width="8.00" shape="102.86,107.49 102.26,103.53 100.56,102.27 96.60,102.86 96.72,108.86 100.70,109.28"/>
    </edge>
    <edge id=":9687148200_w0" function="walkingarea">
        <lane id=":9687148200_w0_0" index="0" allow="pedestrian" speed="2.78" length="3.17" width="8.00" shape="99.65,128.65 99.85,124.66 98.58,123.10 94.62,122.51 92.89,127.54 96.21,129.77"/>
    </edge>
    <edge id=":9687148211_w0" function="walkingarea">
        <lane id=":9687148211_w0_0" index="0" allow="pedestrian" speed="2.78" length="4.38" width="4.00" shape="100.85,100.16 96.87,99.79 96.63,100.62 96.39,100.91 96.08,101.12 95.69,101.24 95.23,101.29 95.25,105.29 97.19,106.76 101.14,106.17"/>
    </edge>
    <edge id=":9687148317_w0" function="walkingarea">
        <lane id=":9687148317_w0_0" index="0" allow="pedestrian" speed="2.78" length="2.54" width="4.00" shape="99.41,144.62 95.41,144.60 95.40,145.61 95.41,145.96 95.43,146.31 95.47,146.74 95.52,147.32 99.50,146.96 99.43,146.09 99.41,145.79 99.40,145.48 99.40,145.12"/>
    </edge>
    <edge id=":9687187495_w0" function="walkingarea">
        <lane id=":9687187495_w0_0" index="0" allow="pedestrian" speed="2.78" length="1.12" width="4.00" shape="122.33,36.56 122.35,32.56 119.34,32.55 119.34,36.55"/>
    </edge>
    <edge id=":9687187500_0" function="internal">
        <lane id=":9687187500_0_0" index="0" disallow="pedestrian tram rail_urban rail rail_electric rail_fast ship cable_car subway" speed="8.94" length="7.04" shape="116.51,30.98 116.45,38.02"/>
    </edge>
    <edge id=":9687187500_c0" function="crossing" crossingEdges="1078803477#4.109">
        <lane id=":9687187500_c0_0" index="0" allow="pedestrian" speed="2.78" length="3.20" width="4.00" shape="114.88,34.49 118.08,34.51" outlineShape="114.80,32.49 118.20,32.51 118.07,36.51 114.87,36.49 114.90,32.49 113.40,32.45 113.34,36.45"/>
    </edge>
    <edge id=":9687187500_w0" function="walkingarea">
        <lane id=":9687187500_w0_0" index="0" allow="pedestrian" speed="2.78" length="4.17" width="4.00" shape="118.05,37.96 121.05,38.12 120.89,36.55 120.89,32.55 121.11,31.01 118.11,30.99 118.10,32.51 118.07,36.51"/>
    </edge>
    <edge id=":9687187500_w1" function="walkingarea">
        <lane id=":9687187500_w1_0" index="0" allow="pedestrian" speed="2.78" length="1.51" width="4.00" shape="114.87,36.49 114.90,32.49 113.40,32.45 113.34,36.45"/>
    </edge>
    <edge id=":9687187501_0" function="internal">
        <lane id=":9687187501_0_0" index="0" disallow="pedestrian tram rail_urban rail rail_electric rail_fast ship cable_car subway" speed="8.94" length="10.11" shape="108.57,37.93 109.12,27.84"/>
    </edge>
    <edge id=":9687187501_c0" function="crossing" crossingEdges="773672649#2">
        <lane id=":9687187501_c0_0" index="0" allow="pedestrian" speed="2.78" length="3.20" width="4.00" shape="107.25,32.80 110.45,32.97" outlineShape="107.36,30.80 110.55,30.97 111.93,35.05 111.97,32.43 110.55,30.97 110.34,34.97 107.14,34.79 107.31,30.85 105.63,32.33 105.58,34.71"/>
    </edge>
    <edge id=":9687187501_w0" function="walkingarea">
        <lane id=":9687187501_w0_0" index="0" allow="pedestrian" speed="2.78" length="2.09" width="4.00" shape="111.91,36.43 111.97,32.43 110.55,30.97 110.34,34.97"/>
    </edge>
    <edge id=":9687187501_w1" function="walkingarea">
        <lane id=":9687187501_w1_0" index="0" allow="pedestrian" speed="2.78" length="2.26" width="4.00" shape="107.14,34.79 107.36,30.80 105.63,32.33 105.55,36.33"/>
    </edge>
    <edge id=":9687187513_w0" function="walkingarea">
        <lane id=":9687187513_w0_0" index="0" allow="pedestrian" speed="2.78" length="5.63" width="4.00" shape="101.58,2.47 101.64,-1.53 94.64,-1.65 94.58,2.35 95.41,2.53 95.70,2.74 95.90,3.04 96.02,3.42 96.05,3.87 100.05,3.95 100.23,3.11 100.45,2.83 100.74,2.62 101.12,2.50"/>
    </edge>
    <edge id=":9687187518_w0" function="walkingarea">
        <lane id=":9687187518_w0_0" index="0" allow="pedestrian" speed="2.78" length="6.15" width="4.00" shape="95.46,74.07 100.45,71.75 99.23,65.20 95.23,65.27 95.08,66.10 94.88,66.39 94.59,66.59 94.22,66.71 93.76,66.74 93.67,70.74 94.62,71.13 94.96,71.59 95.21,72.23 95.38,73.06"/>
    </edge>
    <edge id=":9687187522_w0" function="walkingarea">
        <lane id=":9687187522_w0_0" index="0" allow="pedestrian" speed="2.78" length="4.27" width="4.00" shape="99.09,76.07 103.07,76.45 103.47,71.13 99.48,70.99 99.47,74.27 95.42,72.85"/>
    </edge>
    <edge id=":9687187524_w0" function="walkingarea">
        <lane id=":9687187524_w0_0" index="0" allow="pedestrian" speed="2.78" length="4.49" width="4.00" shape="99.56,51.08 95.60,50.50 95.27,52.50 95.16,53.21 95.09,53.91 95.05,54.77 95.06,55.93 99.05,55.86 99.95,56.76 100.84,52.56 100.03,52.40 99.77,52.19 99.60,51.90 99.53,51.53"/>
    </edge>
    <edge id=":9687187526_w0" function="walkingarea">
        <lane id=":9687187526_w0_0" index="0" allow="pedestrian" speed="2.78" length="5.60" width="4.00" shape="103.47,36.30 103.52,32.30 102.69,32.12 102.40,31.91 102.20,31.62 102.08,31.24 102.05,30.78 98.05,30.71 97.99,33.12 97.94,33.96 97.86,34.80 97.73,35.82 97.53,37.19 101.49,37.76 101.81,36.94 102.09,36.65 102.47,36.45 102.93,36.33"/>
    </edge>
    <edge id=":9727779401_0" function="internal">
        <lane id=":9727779401_0_0" index="0" allow="pedestrian passenger delivery bicycle" speed="3.65" length="4.67" shape="310.69,57.42 309.48,56.63 309.07,55.84 309.46,55.03 310.65,54.22"/>
    </edge>
    <edge id=":9727779405_0" function="internal">
        <lane id=":9727779405_0_0" index="0" allow="pedestrian passenger delivery bicycle" speed="5.56" length="6.85" shape="335.44,109.72 333.89,116.39"/>
    </edge>
    <edge id=":9727779405_1" function="internal">
        <lane id=":9727779405_1_0" index="0" allow="pedestrian passenger delivery bicycle" speed="3.65" length="1.44" shape="335.44,109.72 334.43,110.74"/>
    </edge>
    <edge id=":9727779405_4" function="internal">
        <lane id=":9727779405_4_0" index="0" allow="pedestrian passenger delivery bicycle" speed="3.65" length="3.23" shape="334.43,110.74 333.57,110.98 332.86,110.44 332.30,109.11"/>
    </edge>
    <edge id=":9727779405_2" function="internal">
        <lane id=":9727779405_2_0" index="0" allow="pedestrian passenger delivery bicycle" speed="5.56" length="6.66" shape="330.79,115.60 332.30,109.11"/>
    </edge>
    <edge id=":9727779405_3" function="internal">
        <lane id=":9727779405_3_0" index="0" allow="pedestrian passenger delivery bicycle" speed="3.65" length="1.44" shape="330.79,115.60 331.86,114.64"/>
    </edge>
    <edge id=":9727779405_5" function="internal">
        <lane id=":9727779405_5_0" index="0" allow="pedestrian passenger delivery bicycle" speed="3.65" length="3.23" shape="331.86,114.64 332.74,114.45 333.41,115.04 333.89,116.39"/>
    </edge>
    <edge id=":9727779405_w0" function="walkingarea">
        <lane id=":9727779405_w0_0" index="0" allow="pedestrian" speed="2.78" length="6.13" width="6.40" shape="337.01,110.02 330.73,108.79 330.39,109.58 330.12,109.82 329.77,109.97 329.35,110.01 328.85,109.95 328.04,113.87 329.13,115.62 335.34,117.17 337.50,115.69 338.21,111.75 337.42,111.44 337.17,111.19 337.02,110.86 336.97,110.47"/>
    </edge>
    <edge id=":9727779406_0" function="internal">
        <lane id=":9727779406_0_0" index="0" disallow="pedestrian tram rail_urban rail rail_electric rail_fast ship cable_car subway" speed="8.94" length="22.24" shape="337.30,126.07 315.53,121.52"/>
    </edge>
    <edge id=":9727779406_1" function="internal">
        <lane id=":9727779406_1_0" index="0" allow="passenger delivery bicycle" speed="7.25" length="3.94" shape="337.30,126.07 333.62,124.65"/>
    </edge>
    <edge id=":9727779406_7" function="internal">
        <lane id=":9727779406_7_0" index="0" allow="passenger delivery bicycle" speed="7.25" length="10.04" shape="333.62,124.65 331.30,122.47 330.34,119.52 330.74,115.79"/>
    </edge>
    <edge id=":9727779406_2" function="internal">
        <lane id=":9727779406_2_0" index="0" allow="passenger delivery bicycle" speed="6.38" length="8.73" shape="333.84,116.59 333.62,118.89 334.25,120.72 335.72,122.08 338.04,122.96"/>
    </edge>
    <edge id=":9727779406_3" function="internal">
        <lane id=":9727779406_3_0" index="0" allow="passenger delivery bicycle" speed="7.25" length="20.65" shape="333.84,116.59 331.97,119.77 328.30,121.66 322.82,122.24 315.53,121.52"/>
    </edge>
    <edge id=":9727779406_4" function="internal">
        <lane id=":9727779406_4_0" index="0" allow="pedestrian passenger delivery bicycle" speed="3.65" length="4.67" shape="333.84,116.59 332.77,117.55 331.89,117.74 331.22,117.15 330.74,115.79"/>
    </edge>
    <edge id=":9727779406_5" function="internal">
        <lane id=":9727779406_5_0" index="0" allow="passenger delivery bicycle" speed="7.25" length="15.83" shape="316.18,118.39 322.07,119.06 326.46,118.86 329.35,117.77 330.74,115.79"/>
    </edge>
    <edge id=":9727779406_6" function="internal">
        <lane id=":9727779406_6_0" index="0" disallow="pedestrian tram rail_urban rail rail_electric rail_fast ship cable_car subway" speed="8.94" length="22.33" shape="316.18,118.39 338.04,122.96"/>
    </edge>
    <edge id=":9727779406_w0" function="walkingarea">
        <lane id=":9727779406_w0_0" index="0" allow="pedestrian" speed="2.78" length="3.20" width="3.20" shape="335.39,116.98 332.29,116.20 329.19,115.39"/>
    </edge>
    <edge id=":9727816623_0" function="internal">
        <lane id=":9727816623_0_0" index="0" disallow="pedestrian tram rail_urban rail rail_electric rail_fast ship cable_car subway" speed="8.94" length="0.31" shape="421.54,137.03 421.23,137.02"/>
    </edge>
    <edge id=":9727816623_1" function="internal">